@<TRIPOS>MOLECULE
bcd.pdb
153 160 1 0 0
SMALL
NO_CHARGES


@<TRIPOS>ATOM
      1 C1         23.9270   15.3510   33.8120 C.3       1 MGO    0.0000
      2 H1         25.0000   15.1110   33.9420 H         1 MGO    0.0000
      3 O1         23.7270   16.7740   33.5100 O.3       1 MGO    0.0000
      4 C2         23.3930   14.5220   32.6480 C.3       1 MGO    0.0000
      5 H2         23.5850   13.4620   32.8330 H         1 MGO    0.0000
      6 O2         24.0390   14.9250   31.4290 O.3       1 MGO    0.0000
      7 H3         24.4550   15.7950   31.5450 H         1 MGO    0.0000
      8 C3         21.9080   14.7560   32.4590 C.3       1 MGO    0.0000
      9 H4         21.7350   15.7940   32.1640 H         1 MGO    0.0000
     10 O3         21.4780   13.8540   31.4260 O.3       1 MGO    0.0000
     11 H5         22.1930   13.8260   30.7760 H         1 MGO    0.0000
     12 C4         21.1600   14.4440   33.7450 C.3       1 MGO    0.0000
     13 H6         21.2450   13.3760   33.9580 H         1 MGO    0.0000
     14 C5         21.7230   15.2500   34.9270 C.3       1 MGO    0.0000
     15 H7         21.5850   16.3100   34.7040 H         1 MGO    0.0000
     16 O4         23.1830   14.9900   35.0350 O.3       1 MGO    0.0000
     17 C6         21.0710   15.0130   36.2970 C.3       1 MGO    0.0000
     18 H8         20.2330   15.7000   36.4290 H         1 MGO    0.0000
     19 H9         21.7940   15.2030   37.0940 H         1 MGO    0.0000
     20 O5         20.5820   13.6690   36.4020 O.3       1 MGO    0.0000
     21 H10        19.6710   13.6540   36.0810 H         1 MGO    0.0000
     22 C7         25.9320   20.3280   33.8120 C.3       1 MGO    0.0000
     23 H11        26.7900   21.0180   33.9400 H         1 MGO    0.0000
     24 O6         24.6950   21.0590   33.5090 O.3       1 MGO    0.0000
     25 C8         26.2470   19.3930   32.6470 C.3       1 MGO    0.0000
     26 H12        27.1970   18.8830   32.8320 H         1 MGO    0.0000
     27 O7         26.3340   20.1490   31.4280 O.3       1 MGO    0.0000
     28 H13        25.9140   21.0170   31.5440 H         1 MGO    0.0000
     29 C9         25.1380   18.3780   32.4600 C.3       1 MGO    0.0000
     30 H14        24.2180   18.8900   32.1640 H         1 MGO    0.0000
     31 O8         25.5750   17.4800   31.4270 O.3       1 MGO    0.0000
     32 H15        26.0430   18.0220   30.7750 H         1 MGO    0.0000
     33 C10        24.9150   17.5990   33.7450 C.3       1 MGO    0.0000
     34 H16        25.8050   16.9990   33.9580 H         1 MGO    0.0000
     35 C11        24.6380   18.5410   34.9270 C.3       1 MGO    0.0000
     36 H17        23.7230   19.0950   34.7040 H         1 MGO    0.0000
     37 O9         25.7510   19.5220   35.0350 O.3       1 MGO    0.0000
     38 C12        24.4170   17.8850   36.2970 C.3       1 MGO    0.0000
     39 H18        23.3570   17.6580   36.4300 H         1 MGO    0.0000
     40 H19        24.7190   18.5680   37.0940 H         1 MGO    0.0000
     41 O10        25.1630   16.6650   36.4030 O.3       1 MGO    0.0000
     42 H20        24.6060   15.9430   36.0810 H         1 MGO    0.0000
     43 C13        23.2920   24.9990   33.8110 C.3       1 MGO    0.0000
     44 H21        23.2860   26.0990   33.9400 H         1 MGO    0.0000
     45 O11        21.9480   24.4860   33.5090 O.3       1 MGO    0.0000
     46 C14        24.2180   24.6620   32.6460 C.3       1 MGO    0.0000
     47 H22        25.2090   25.0860   32.8300 H         1 MGO    0.0000
     48 O12        23.6810   25.2020   31.4280 O.3       1 MGO    0.0000
     49 H23        22.7410   25.4140   31.5430 H         1 MGO    0.0000
     50 C15        24.3200   23.1620   32.4580 C.3       1 MGO    0.0000
     51 H24        23.3460   22.7620   32.1640 H         1 MGO    0.0000
     52 O13        25.2950   22.9440   31.4250 O.3       1 MGO    0.0000
     53 H25        25.1620   23.6470   30.7740 H         1 MGO    0.0000
     54 C16        24.7920   22.5030   33.7450 C.3       1 MGO    0.0000
     55 H26        25.8150   22.8250   33.9560 H         1 MGO    0.0000
     56 C17        23.8820   22.8730   34.9260 C.3       1 MGO    0.0000
     57 H27        22.8790   22.5030   34.7030 H         1 MGO    0.0000
     58 O14        23.8090   24.3550   35.0340 O.3       1 MGO    0.0000
     59 C18        24.2580   22.2910   36.2960 C.3       1 MGO    0.0000
     60 H28        23.7750   21.3210   36.4290 H         1 MGO    0.0000
     61 H29        23.9120   22.9540   37.0940 H         1 MGO    0.0000
     62 O15        25.6770   22.1140   36.4020 O.3       1 MGO    0.0000
     63 H30        25.8940   21.2280   36.0800 H         1 MGO    0.0000
     64 C19        17.9930   25.8460   33.8130 C.3       1 MGO    0.0000
     65 H31        17.1300   26.5280   33.9410 H         1 MGO    0.0000
     66 O16        17.5570   24.4760   33.5100 O.3       1 MGO    0.0000
     67 C20        18.8340   26.3610   32.6480 C.3       1 MGO    0.0000
     68 H32        19.1200   27.4000   32.8330 H         1 MGO    0.0000
     69 O17        18.0770   26.2780   31.4280 O.3       1 MGO    0.0000
     70 C43        17.5943   27.5520   31.0741 C.3       1 MGO    0.0000
     71 C21        20.0700   25.5060   32.4590 C.3       1 MGO    0.0000
     72 H34        19.7760   24.4950   32.1640 H         1 MGO    0.0000
     73 O18        20.8490   26.1310   31.4260 O.3       1 MGO    0.0000
     74 H35        20.2160   26.4670   30.7760 H         1 MGO    0.0000
     75 C22        20.8800   25.4620   33.7440 C.3       1 MGO    0.0000
     76 H36        21.2660   26.4620   33.9570 H         1 MGO    0.0000
     77 C23        20.0240   24.9820   34.9260 C.3       1 MGO    0.0000
     78 H37        19.6870   23.9660   34.7040 H         1 MGO    0.0000
     79 O19        18.8200   25.8490   35.0350 O.3       1 MGO    0.0000
     80 C24        20.7130   24.9130   36.2960 C.3       1 MGO    0.0000
     81 H38        21.1710   23.9290   36.4290 H         1 MGO    0.0000
     82 H39        19.9790   25.0550   37.0940 H         1 MGO    0.0000
     83 O20        21.7360   25.9100   36.4020 O.3       1 MGO    0.0000
     84 C44        22.1796   25.9470   37.7374 C.3       1 MGO    0.0000
     85 C25        14.0270   22.2320   33.8130 C.3       1 MGO    0.0000
     86 H41        12.9560   21.9830   33.9420 H         1 MGO    0.0000
     87 O21        14.8250   21.0380   33.5100 O.3       1 MGO    0.0000
     88 C26        14.1490   23.2110   32.6480 C.3       1 MGO    0.0000
     89 H42        13.5150   24.0830   32.8340 H         1 MGO    0.0000
     90 O22        13.7410   22.5680   31.4300 O.3       1 MGO    0.0000
     91 H43        13.7440   21.6040   31.5450 H         1 MGO    0.0000
     92 C27        15.5880   23.6450   32.4600 C.3       1 MGO    0.0000
     93 H44        16.1950   22.7840   32.1650 H         1 MGO    0.0000
     94 O23        15.5840   24.6430   31.4270 O.3       1 MGO    0.0000
     95 H45        14.9280   24.3580   30.7760 H         1 MGO    0.0000
     96 C28        16.1270   24.2500   33.7460 C.3       1 MGO    0.0000
     97 H46        15.5860   25.1760   33.9590 H         1 MGO    0.0000
     98 C29        15.9690   23.2800   34.9270 C.3       1 MGO    0.0000
     99 H47        16.5530   22.3850   34.7040 H         1 MGO    0.0000
    100 O24        14.5400   22.8800   35.0360 O.3       1 MGO    0.0000
    101 C30        16.4530   23.7760   36.2970 C.3       1 MGO    0.0000
    102 H48        17.5070   23.5210   36.4290 H         1 MGO    0.0000
    103 H49        15.8850   23.2910   37.0950 H         1 MGO    0.0000
    104 O25        16.3110   25.1990   36.4030 O.3       1 MGO    0.0000
    105 H50        17.1250   25.6080   36.0810 H         1 MGO    0.0000
    106 C31        14.3800   16.8780   33.8120 C.3       1 MGO    0.0000
    107 H51        13.9060   15.8850   33.9400 H         1 MGO    0.0000
    108 O26        15.8120   16.7570   33.5090 O.3       1 MGO    0.0000
    109 C32        13.6900   17.5840   32.6470 C.3       1 MGO    0.0000
    110 H52        12.6140   17.6320   32.8320 H         1 MGO    0.0000
    111 O27        13.9400   16.8650   31.4280 O.3       1 MGO    0.0000
    112 H53        14.6950   16.2650   31.5430 H         1 MGO    0.0000
    113 C33        14.2490   18.9790   32.4590 C.3       1 MGO    0.0000
    114 H54        15.3000   18.9170   32.1640 H         1 MGO    0.0000
    115 O28        13.4660   19.5990   31.4260 O.3       1 MGO    0.0000
    116 H55        13.2800   18.9080   30.7750 H         1 MGO    0.0000
    117 C34        14.1110   19.7780   33.7460 C.3       1 MGO    0.0000
    118 H56        13.0500   19.9320   33.9570 H         1 MGO    0.0000
    119 C35        14.7710   19.0490   34.9260 C.3       1 MGO    0.0000
    120 H57        15.8340   18.9480   34.7040 H         1 MGO    0.0000
    121 O29        14.1930   17.6830   35.0350 O.3       1 MGO    0.0000
    122 C36        14.6840   19.7360   36.2960 C.3       1 MGO    0.0000
    123 H58        15.5410   20.4010   36.4290 H         1 MGO    0.0000
    124 H59        14.7090   18.9890   37.0940 H         1 MGO    0.0000
    125 O30        13.4830   20.5120   36.4020 O.3       1 MGO    0.0000
    126 H60        13.6710   21.4040   36.0820 H         1 MGO    0.0000
    127 C37        18.7860   13.8160   33.8120 C.3       1 MGO    0.0000
    128 H61        19.2680   12.8270   33.9400 H         1 MGO    0.0000
    129 O31        19.7730   14.8600   33.5090 O.3       1 MGO    0.0000
    130 C38        17.8050   13.7170   32.6460 C.3       1 MGO    0.0000
    131 H62        17.0960   12.9050   32.8320 H         1 MGO    0.0000
    132 O32        18.5220   13.4640   31.4280 O.3       1 MGO    0.0000
    133 H63        19.4620   13.6810   31.5440 H         1 MGO    0.0000
    134 C39        17.0620   15.0230   32.4590 C.3       1 MGO    0.0000
    135 H64        17.7660   15.8070   32.1630 H         1 MGO    0.0000
    136 O33        16.0890   14.7980   31.4250 O.3       1 MGO    0.0000
    137 H65        16.5130   14.2220   30.7750 H         1 MGO    0.0000
    138 C40        16.3510   15.4150   33.7450 C.3       1 MGO    0.0000
    139 H66        15.5690   14.6810   33.9570 H         1 MGO    0.0000
    140 C41        17.3320   15.4750   34.9270 C.3       1 MGO    0.0000
    141 H67        18.0750   16.2440   34.7030 H         1 MGO    0.0000
    142 O34        18.0390   14.1720   35.0340 O.3       1 MGO    0.0000
    143 C42        16.7400   15.8370   36.2970 C.3       1 MGO    0.0000
    144 H68        16.7540   16.9200   36.4300 H         1 MGO    0.0000
    145 H69        17.3390   15.3900   37.0930 H         1 MGO    0.0000
    146 O35        15.3840   15.3810   36.4020 O.3       1 MGO    0.0000
    147 H70        14.8050   16.0830   36.0800 H         1 MGO    0.0000
    148 H431       17.0221   27.4803   30.1490 H         1 MGO    0.0000
    149 H432       16.9526   27.9310   31.8695 H         1 MGO    0.0000
    150 HC431      18.4342   28.2316   30.9300 H         1 MGO    0.0000
    151 H441       22.9602   26.7009   37.8407 H         1 MGO    0.0000
    152 H442       22.5782   24.9713   38.0147 H         1 MGO    0.0000
    153 HC441      21.3440   26.1973   38.3910 H         1 MGO    0.0000
@<TRIPOS>BOND
     1    1    2 1
     2    1    3 1
     3    1    4 1
     4    1   16 1
     5    3   33 1
     6    4    5 1
     7    4    6 1
     8    4    8 1
     9    6    7 1
    10    8    9 1
    11    8   10 1
    12    8   12 1
    13   10   11 1
    14   12   13 1
    15   12   14 1
    16   12  129 1
    17   14   15 1
    18   14   16 1
    19   14   17 1
    20   17   18 1
    21   17   19 1
    22   17   20 1
    23   20   21 1
    24   22   23 1
    25   22   24 1
    26   22   25 1
    27   22   37 1
    28   24   54 1
    29   25   26 1
    30   25   27 1
    31   25   29 1
    32   27   28 1
    33   29   30 1
    34   29   31 1
    35   29   33 1
    36   31   32 1
    37   33   34 1
    38   33   35 1
    39   35   36 1
    40   35   37 1
    41   35   38 1
    42   38   39 1
    43   38   40 1
    44   38   41 1
    45   41   42 1
    46   43   44 1
    47   43   45 1
    48   43   46 1
    49   43   58 1
    50   45   75 1
    51   46   47 1
    52   46   48 1
    53   46   50 1
    54   48   49 1
    55   50   51 1
    56   50   52 1
    57   50   54 1
    58   52   53 1
    59   54   55 1
    60   54   56 1
    61   56   57 1
    62   56   58 1
    63   56   59 1
    64   59   60 1
    65   59   61 1
    66   59   62 1
    67   62   63 1
    68   64   65 1
    69   64   66 1
    70   64   67 1
    71   64   79 1
    72   66   96 1
    73   67   68 1
    74   67   69 1
    75   67   71 1
    76   69   70 1
    77   71   72 1
    78   71   73 1
    79   71   75 1
    80   73   74 1
    81   75   76 1
    82   75   77 1
    83   77   78 1
    84   77   79 1
    85   77   80 1
    86   80   81 1
    87   80   82 1
    88   80   83 1
    89   83   84 1
    90   85   86 1
    91   85   87 1
    92   85   88 1
    93   85  100 1
    94   87  117 1
    95   88   89 1
    96   88   90 1
    97   88   92 1
    98   90   91 1
    99   92   93 1
   100   92   94 1
   101   92   96 1
   102   94   95 1
   103   96   97 1
   104   96   98 1
   105   98   99 1
   106   98  100 1
   107   98  101 1
   108  101  102 1
   109  101  103 1
   110  101  104 1
   111  104  105 1
   112  106  107 1
   113  106  108 1
   114  106  109 1
   115  106  121 1
   116  108  138 1
   117  109  110 1
   118  109  111 1
   119  109  113 1
   120  111  112 1
   121  113  114 1
   122  113  115 1
   123  113  117 1
   124  115  116 1
   125  117  118 1
   126  117  119 1
   127  119  120 1
   128  119  121 1
   129  119  122 1
   130  122  123 1
   131  122  124 1
   132  122  125 1
   133  125  126 1
   134  127  128 1
   135  127  129 1
   136  127  130 1
   137  127  142 1
   138  130  131 1
   139  130  132 1
   140  130  134 1
   141  132  133 1
   142  134  135 1
   143  134  136 1
   144  134  138 1
   145  136  137 1
   146  138  139 1
   147  138  140 1
   148  140  141 1
   149  140  142 1
   150  140  143 1
   151  143  144 1
   152  143  145 1
   153  143  146 1
   154  146  147 1
   155  148   70 1
   156  149   70 1
   157  150   70 1
   158  151   84 1
   159  152   84 1
   160  153   84 1
@<TRIPOS>SUBSTRUCTURE
     1 MGO     1 RESIDUE           4 A     MGO     0 ROOT
