@<TRIPOS>MOLECULE
MGO
  153   160     1     0     0
SMALL
No Charge or Current Charge


@<TRIPOS>ATOM
      1 C1x         23.9270    15.3510    33.8120 C.3        1 MGO       0.303909
      2 H1x         25.0000    15.1110    33.9420 H          1 MGO       0.091709
      3 O1x         23.7270    16.7740    33.5100 O.3        1 MGO      -0.449591
      4 C2x         23.3930    14.5220    32.6480 C.3        1 MGO       0.103109
      5 H2x         23.5850    13.4620    32.8330 H          1 MGO       0.088709
      6 O2x         24.0390    14.9250    31.4290 O.3        1 MGO      -0.574791
      7 H3x         24.4550    15.7950    31.5450 H          1 MGO       0.423009
      8 C3x         21.9080    14.7560    32.4590 C.3        1 MGO       0.088109
      9 H4x         21.7350    15.7940    32.1640 H          1 MGO       0.108709
     10 O3x         21.4780    13.8540    31.4260 O.3        1 MGO      -0.576791
     11 H5x         22.1930    13.8260    30.7760 H          1 MGO       0.402009
     12 C4x         21.1600    14.4440    33.7450 C.3        1 MGO       0.093109
     13 H6x         21.2450    13.3760    33.9580 H          1 MGO       0.065709
     14 C5x         21.7230    15.2500    34.9270 C.3        1 MGO       0.108109
     15 H7x         21.5850    16.3100    34.7040 H          1 MGO       0.079709
     16 O4x         23.1830    14.9900    35.0350 O.3        1 MGO      -0.446591
     17 C6x         21.0710    15.0130    36.2970 C.3        1 MGO       0.140409
     18 H8x         20.2330    15.7000    36.4290 H          1 MGO       0.064209
     19 H9x         21.7940    15.2030    37.0940 H          1 MGO       0.064209
     20 O5x         20.5820    13.6690    36.4020 O.3        1 MGO      -0.596791
     21 H10x        19.6710    13.6540    36.0810 H          1 MGO       0.413009
     22 C7x         25.9320    20.3280    33.8120 C.3        1 MGO       0.303909
     23 H11x        26.7900    21.0180    33.9400 H          1 MGO       0.091709
     24 O6x         24.6950    21.0590    33.5090 O.3        1 MGO      -0.449591
     25 C8x         26.2470    19.3930    32.6470 C.3        1 MGO       0.103109
     26 H12x        27.1970    18.8830    32.8320 H          1 MGO       0.088709
     27 O7x         26.3340    20.1490    31.4280 O.3        1 MGO      -0.574791
     28 H13x        25.9140    21.0170    31.5440 H          1 MGO       0.423009
     29 C9x         25.1380    18.3780    32.4600 C.3        1 MGO       0.088109
     30 H14x        24.2180    18.8900    32.1640 H          1 MGO       0.108709
     31 O8x         25.5750    17.4800    31.4270 O.3        1 MGO      -0.576791
     32 H15x        26.0430    18.0220    30.7750 H          1 MGO       0.402009
     33 C10x        24.9150    17.5990    33.7450 C.3        1 MGO       0.093109
     34 H16x        25.8050    16.9990    33.9580 H          1 MGO       0.065709
     35 C11x        24.6380    18.5410    34.9270 C.3        1 MGO       0.108109
     36 H17x        23.7230    19.0950    34.7040 H          1 MGO       0.079709
     37 O9x         25.7510    19.5220    35.0350 O.3        1 MGO      -0.446591
     38 C12x        24.4170    17.8850    36.2970 C.3        1 MGO       0.140409
     39 H18x        23.3570    17.6580    36.4300 H          1 MGO       0.064209
     40 H19x        24.7190    18.5680    37.0940 H          1 MGO       0.064209
     41 O10x        25.1630    16.6650    36.4030 O.3        1 MGO      -0.596791
     42 H20x        24.6060    15.9430    36.0810 H          1 MGO       0.413009
     43 C13x        23.2920    24.9990    33.8110 C.3        1 MGO       0.303909
     44 H21x        23.2860    26.0990    33.9400 H          1 MGO       0.091709
     45 O11x        21.9480    24.4860    33.5090 O.3        1 MGO      -0.449591
     46 C14x        24.2180    24.6620    32.6460 C.3        1 MGO       0.103109
     47 H22x        25.2090    25.0860    32.8300 H          1 MGO       0.088709
     48 O12x        23.6810    25.2020    31.4280 O.3        1 MGO      -0.574791
     49 H23x        22.7410    25.4140    31.5430 H          1 MGO       0.423009
     50 C15x        24.3200    23.1620    32.4580 C.3        1 MGO       0.088109
     51 H24x        23.3460    22.7620    32.1640 H          1 MGO       0.108709
     52 O13x        25.2950    22.9440    31.4250 O.3        1 MGO      -0.576791
     53 H25x        25.1620    23.6470    30.7740 H          1 MGO       0.402009
     54 C16x        24.7920    22.5030    33.7450 C.3        1 MGO       0.093109
     55 H26x        25.8150    22.8250    33.9560 H          1 MGO       0.065709
     56 C17x        23.8820    22.8730    34.9260 C.3        1 MGO       0.108109
     57 H27x        22.8790    22.5030    34.7030 H          1 MGO       0.079709
     58 O14x        23.8090    24.3550    35.0340 O.3        1 MGO      -0.446591
     59 C18x        24.2580    22.2910    36.2960 C.3        1 MGO       0.140409
     60 H28x        23.7750    21.3210    36.4290 H          1 MGO       0.064209
     61 H29x        23.9120    22.9540    37.0940 H          1 MGO       0.064209
     62 O15x        25.6770    22.1140    36.4020 O.3        1 MGO      -0.596791
     63 H30x        25.8940    21.2280    36.0800 H          1 MGO       0.413009
     64 C19x        17.9930    25.8460    33.8130 C.3        1 MGO       0.332820
     65 H31x        17.1300    26.5280    33.9410 H          1 MGO       0.089620
     66 O16x        17.5570    24.4760    33.5100 O.3        1 MGO      -0.423680
     67 C20x        18.8340    26.3610    32.6480 C.3        1 MGO       0.137020
     68 H32x        19.1200    27.4000    32.8330 H          1 MGO       0.067620
     69 O17x        18.0770    26.2780    31.4280 O.3        1 MGO      -0.398680
     70 C21x        17.5940    27.5520    31.0740 C.3        1 MGO       0.114620
     71 C22x        20.0700    25.5060    32.4590 C.3        1 MGO       0.125020
     72 H33x        19.7760    24.4950    32.1640 H          1 MGO       0.087620
     73 O18x        20.8490    26.1310    31.4260 O.3        1 MGO      -0.603880
     74 H34x        20.2160    26.4670    30.7760 H          1 MGO       0.421920
     75 C23x        20.8800    25.4620    33.7440 C.3        1 MGO       0.091020
     76 H35x        21.2660    26.4620    33.9570 H          1 MGO       0.059620
     77 C24x        20.0240    24.9820    34.9260 C.3        1 MGO       0.094020
     78 H36x        19.6870    23.9660    34.7040 H          1 MGO       0.084620
     79 O19x        18.8200    25.8490    35.0350 O.3        1 MGO      -0.446680
     80 C25x        20.7130    24.9130    36.2960 C.3        1 MGO       0.127320
     81 H37x        21.1710    23.9290    36.4290 H          1 MGO       0.065620
     82 H38x        19.9790    25.0550    37.0940 H          1 MGO       0.065620
     83 O20x        21.7360    25.9100    36.4020 O.3        1 MGO      -0.418680
     84 C26x        22.1800    25.9470    37.7370 C.3        1 MGO       0.116620
     85 C27x        14.0270    22.2320    33.8130 C.3        1 MGO       0.303909
     86 H39x        12.9560    21.9830    33.9420 H          1 MGO       0.091709
     87 O21x        14.8250    21.0380    33.5100 O.3        1 MGO      -0.449591
     88 C28x        14.1490    23.2110    32.6480 C.3        1 MGO       0.103109
     89 H40x        13.5150    24.0830    32.8340 H          1 MGO       0.088709
     90 O22x        13.7410    22.5680    31.4300 O.3        1 MGO      -0.574791
     91 H41x        13.7440    21.6040    31.5450 H          1 MGO       0.423009
     92 C29x        15.5880    23.6450    32.4600 C.3        1 MGO       0.088109
     93 H42x        16.1950    22.7840    32.1650 H          1 MGO       0.108709
     94 O23x        15.5840    24.6430    31.4270 O.3        1 MGO      -0.576791
     95 H43x        14.9280    24.3580    30.7760 H          1 MGO       0.402009
     96 C30x        16.1270    24.2500    33.7460 C.3        1 MGO       0.093109
     97 H44x        15.5860    25.1760    33.9590 H          1 MGO       0.065709
     98 C31x        15.9690    23.2800    34.9270 C.3        1 MGO       0.108109
     99 H45x        16.5530    22.3850    34.7040 H          1 MGO       0.079709
    100 O24x        14.5400    22.8800    35.0360 O.3        1 MGO      -0.446591
    101 C32x        16.4530    23.7760    36.2970 C.3        1 MGO       0.140409
    102 H46x        17.5070    23.5210    36.4290 H          1 MGO       0.064209
    103 H47x        15.8850    23.2910    37.0950 H          1 MGO       0.064209
    104 O25x        16.3110    25.1990    36.4030 O.3        1 MGO      -0.596791
    105 H48x        17.1250    25.6080    36.0810 H          1 MGO       0.413009
    106 C33x        14.3800    16.8780    33.8120 C.3        1 MGO       0.303909
    107 H49x        13.9060    15.8850    33.9400 H          1 MGO       0.091709
    108 O26x        15.8120    16.7570    33.5090 O.3        1 MGO      -0.449591
    109 C34x        13.6900    17.5840    32.6470 C.3        1 MGO       0.103109
    110 H50x        12.6140    17.6320    32.8320 H          1 MGO       0.088709
    111 O27x        13.9400    16.8650    31.4280 O.3        1 MGO      -0.574791
    112 H51x        14.6950    16.2650    31.5430 H          1 MGO       0.423009
    113 C35x        14.2490    18.9790    32.4590 C.3        1 MGO       0.088109
    114 H52x        15.3000    18.9170    32.1640 H          1 MGO       0.108709
    115 O28x        13.4660    19.5990    31.4260 O.3        1 MGO      -0.576791
    116 H53x        13.2800    18.9080    30.7750 H          1 MGO       0.402009
    117 C36x        14.1110    19.7780    33.7460 C.3        1 MGO       0.093109
    118 H54x        13.0500    19.9320    33.9570 H          1 MGO       0.065709
    119 C37x        14.7710    19.0490    34.9260 C.3        1 MGO       0.108109
    120 H55x        15.8340    18.9480    34.7040 H          1 MGO       0.079709
    121 O29x        14.1930    17.6830    35.0350 O.3        1 MGO      -0.446591
    122 C38x        14.6840    19.7360    36.2960 C.3        1 MGO       0.140409
    123 H56x        15.5410    20.4010    36.4290 H          1 MGO       0.064209
    124 H57x        14.7090    18.9890    37.0940 H          1 MGO       0.064209
    125 O30x        13.4830    20.5120    36.4020 O.3        1 MGO      -0.596791
    126 H58x        13.6710    21.4040    36.0820 H          1 MGO       0.413009
    127 C39x        18.7860    13.8160    33.8120 C.3        1 MGO       0.303909
    128 H59x        19.2680    12.8270    33.9400 H          1 MGO       0.091709
    129 O31x        19.7730    14.8600    33.5090 O.3        1 MGO      -0.449591
    130 C40x        17.8050    13.7170    32.6460 C.3        1 MGO       0.103109
    131 H60x        17.0960    12.9050    32.8320 H          1 MGO       0.088709
    132 O32x        18.5220    13.4640    31.4280 O.3        1 MGO      -0.574791
    133 H61x        19.4620    13.6810    31.5440 H          1 MGO       0.423009
    134 C41x        17.0620    15.0230    32.4590 C.3        1 MGO       0.088109
    135 H62x        17.7660    15.8070    32.1630 H          1 MGO       0.108709
    136 O33x        16.0890    14.7980    31.4250 O.3        1 MGO      -0.576791
    137 H63x        16.5130    14.2220    30.7750 H          1 MGO       0.402009
    138 C42x        16.3510    15.4150    33.7450 C.3        1 MGO       0.093109
    139 H64x        15.5690    14.6810    33.9570 H          1 MGO       0.065709
    140 C43x        17.3320    15.4750    34.9270 C.3        1 MGO       0.108109
    141 H65x        18.0750    16.2440    34.7030 H          1 MGO       0.079709
    142 O34x        18.0390    14.1720    35.0340 O.3        1 MGO      -0.446591
    143 C44x        16.7400    15.8370    36.2970 C.3        1 MGO       0.140409
    144 H66x        16.7540    16.9200    36.4300 H          1 MGO       0.064209
    145 H67x        17.3390    15.3900    37.0930 H          1 MGO       0.064209
    146 O35x        15.3840    15.3810    36.4020 O.3        1 MGO      -0.596791
    147 H68x        14.8050    16.0830    36.0800 H          1 MGO       0.413009
    148 H69x        17.0220    27.4800    30.1490 H          1 MGO       0.044953
    149 H70x        16.9530    27.9310    31.8690 H          1 MGO       0.044953
    150 H71x        18.4340    28.2320    30.9300 H          1 MGO       0.044953
    151 H72x        22.9600    26.7010    37.8410 H          1 MGO       0.038953
    152 H73x        22.5780    24.9710    38.0150 H          1 MGO       0.038953
    153 H74x        21.3440    26.1970    38.3910 H          1 MGO       0.038953
@<TRIPOS>BOND
     1     1     2 1   
     2     1     3 1   
     3     1     4 1   
     4     1    16 1   
     5     3    33 1   
     6     4     5 1   
     7     4     6 1   
     8     4     8 1   
     9     6     7 1   
    10     8     9 1   
    11     8    10 1   
    12     8    12 1   
    13    10    11 1   
    14    12    13 1   
    15    12    14 1   
    16    12   129 1   
    17    14    15 1   
    18    14    16 1   
    19    14    17 1   
    20    17    18 1   
    21    17    19 1   
    22    17    20 1   
    23    20    21 1   
    24    22    23 1   
    25    22    24 1   
    26    22    25 1   
    27    22    37 1   
    28    24    54 1   
    29    25    26 1   
    30    25    27 1   
    31    25    29 1   
    32    27    28 1   
    33    29    30 1   
    34    29    31 1   
    35    29    33 1   
    36    31    32 1   
    37    33    34 1   
    38    33    35 1   
    39    35    36 1   
    40    35    37 1   
    41    35    38 1   
    42    38    39 1   
    43    38    40 1   
    44    38    41 1   
    45    41    42 1   
    46    43    44 1   
    47    43    45 1   
    48    43    46 1   
    49    43    58 1   
    50    45    75 1   
    51    46    47 1   
    52    46    48 1   
    53    46    50 1   
    54    48    49 1   
    55    50    51 1   
    56    50    52 1   
    57    50    54 1   
    58    52    53 1   
    59    54    55 1   
    60    54    56 1   
    61    56    57 1   
    62    56    58 1   
    63    56    59 1   
    64    59    60 1   
    65    59    61 1   
    66    59    62 1   
    67    62    63 1   
    68    64    65 1   
    69    64    66 1   
    70    64    67 1   
    71    64    79 1   
    72    66    96 1   
    73    67    68 1   
    74    67    69 1   
    75    67    71 1   
    76    69    70 1   
    77    71    72 1   
    78    71    73 1   
    79    71    75 1   
    80    73    74 1   
    81    75    76 1   
    82    75    77 1   
    83    77    78 1   
    84    77    79 1   
    85    77    80 1   
    86    80    81 1   
    87    80    82 1   
    88    80    83 1   
    89    83    84 1   
    90    85    86 1   
    91    85    87 1   
    92    85    88 1   
    93    85   100 1   
    94    87   117 1   
    95    88    89 1   
    96    88    90 1   
    97    88    92 1   
    98    90    91 1   
    99    92    93 1   
   100    92    94 1   
   101    92    96 1   
   102    94    95 1   
   103    96    97 1   
   104    96    98 1   
   105    98    99 1   
   106    98   100 1   
   107    98   101 1   
   108   101   102 1   
   109   101   103 1   
   110   101   104 1   
   111   104   105 1   
   112   106   107 1   
   113   106   108 1   
   114   106   109 1   
   115   106   121 1   
   116   108   138 1   
   117   109   110 1   
   118   109   111 1   
   119   109   113 1   
   120   111   112 1   
   121   113   114 1   
   122   113   115 1   
   123   113   117 1   
   124   115   116 1   
   125   117   118 1   
   126   117   119 1   
   127   119   120 1   
   128   119   121 1   
   129   119   122 1   
   130   122   123 1   
   131   122   124 1   
   132   122   125 1   
   133   125   126 1   
   134   127   128 1   
   135   127   129 1   
   136   127   130 1   
   137   127   142 1   
   138   130   131 1   
   139   130   132 1   
   140   130   134 1   
   141   132   133 1   
   142   134   135 1   
   143   134   136 1   
   144   134   138 1   
   145   136   137 1   
   146   138   139 1   
   147   138   140 1   
   148   140   141 1   
   149   140   142 1   
   150   140   143 1   
   151   143   144 1   
   152   143   145 1   
   153   143   146 1   
   154   146   147 1   
   155   148    70 1   
   156   149    70 1   
   157   150    70 1   
   158   151    84 1   
   159   152    84 1   
   160   153    84 1   
@<TRIPOS>SUBSTRUCTURE
     1 MGO         1 TEMP              0 ****  ****    0 ROOT
