@<TRIPOS>MOLECULE
MGO
  299   314     1     0     0
SMALL
No Charge or Current Charge


@<TRIPOS>ATOM
      1 C1x          4.4230    -4.8050     0.2770 C.3        1 MGO       0.300960
      2 O1x          4.2230    -3.3820    -0.0250 O.3        1 MGO      -0.451540
      3 C2x          3.8890    -5.6340    -0.8870 C.3        1 MGO       0.103160
      4 O2x          4.5350    -5.2310    -2.1060 O.3        1 MGO      -0.575740
      5 C3x          2.4040    -5.4000    -1.0760 C.3        1 MGO       0.088160
      6 O3x          1.9740    -6.3020    -2.1090 O.3        1 MGO      -0.578740
      7 C4x          1.6560    -5.7120     0.2100 C.3        1 MGO       0.090160
      8 C5x          2.2190    -4.9060     1.3920 C.3        1 MGO       0.104160
      9 O4x          3.6790    -5.1660     1.5000 O.3        1 MGO      -0.428540
     10 C6x          1.5670    -5.1430     2.7620 C.3        1 MGO       0.147460
     11 O5x          1.0780    -6.4870     2.8670 O.3        1 MGO      -0.595740
     12 C7x          6.4280     0.1720     0.2770 C.3        1 MGO       0.314504
     13 O6x          5.1910     0.9030    -0.0260 O.3        1 MGO      -0.440496
     14 C8x          6.7430    -0.7630    -0.8880 C.3        1 MGO       0.141204
     15 O7x          6.8300    -0.0070    -2.1070 O.3        1 MGO      -0.576196
     16 C9x          5.6340    -1.7780    -1.0750 C.3        1 MGO       0.109204
     17 O8x          6.0710    -2.6760    -2.1080 O.3        1 MGO      -0.596196
     18 C10x         5.4110    -2.5570     0.2100 C.3        1 MGO       0.088204
     19 C11x         5.1340    -1.6150     1.3920 C.3        1 MGO       0.128704
     20 O9x          6.2470    -0.6340     1.5000 O.3        1 MGO      -0.439996
     21 C12x         4.9130    -2.2710     2.7620 C.3        1 MGO       0.121004
     22 O10x         5.6590    -3.4910     2.8680 O.3        1 MGO      -0.410496
     23 C13x         6.3410    -4.1130     4.0510 C.3        1 MGO       0.210104
     24 C14x         3.7880     4.8430     0.2760 C.3        1 MGO       0.300960
     25 O11x         2.4440     4.3300    -0.0260 O.3        1 MGO      -0.451540
     26 C15x         4.7140     4.5060    -0.8890 C.3        1 MGO       0.103160
     27 O12x         4.1770     5.0460    -2.1070 O.3        1 MGO      -0.575740
     28 C16x         4.8160     3.0060    -1.0770 C.3        1 MGO       0.088160
     29 O13x         5.7910     2.7880    -2.1100 O.3        1 MGO      -0.578740
     30 C17x         5.2880     2.3470     0.2100 C.3        1 MGO       0.090160
     31 C18x         4.3780     2.7170     1.3910 C.3        1 MGO       0.104160
     32 O14x         4.3050     4.1990     1.4990 O.3        1 MGO      -0.428540
     33 C19x         4.7540     2.1350     2.7610 C.3        1 MGO       0.147460
     34 O15x         6.1730     1.9580     2.8670 O.3        1 MGO      -0.595740
     35 C20x        -1.5110     5.6900     0.2780 C.3        1 MGO       0.300960
     36 O16x        -1.9470     4.3200    -0.0250 O.3        1 MGO      -0.451540
     37 C21x        -0.6700     6.2050    -0.8870 C.3        1 MGO       0.103160
     38 O17x        -1.4270     6.1220    -2.1070 O.3        1 MGO      -0.575740
     39 C22x         0.5660     5.3500    -1.0760 C.3        1 MGO       0.088160
     40 O18x         1.3450     5.9750    -2.1090 O.3        1 MGO      -0.578740
     41 C23x         1.3760     5.3060     0.2090 C.3        1 MGO       0.090160
     42 C24x         0.5200     4.8260     1.3910 C.3        1 MGO       0.104160
     43 O19x        -0.6840     5.6930     1.5000 O.3        1 MGO      -0.428540
     44 C25x         1.2090     4.7570     2.7610 C.3        1 MGO       0.147460
     45 O20x         2.2320     5.7540     2.8670 O.3        1 MGO      -0.595740
     46 C26x        -5.4770     2.0760     0.2780 C.3        1 MGO       0.300960
     47 O21x        -4.6790     0.8820    -0.0250 O.3        1 MGO      -0.451540
     48 C27x        -5.3550     3.0550    -0.8870 C.3        1 MGO       0.103160
     49 O22x        -5.7630     2.4120    -2.1050 O.3        1 MGO      -0.575740
     50 C28x        -3.9160     3.4890    -1.0750 C.3        1 MGO       0.088160
     51 O23x        -3.9200     4.4870    -2.1080 O.3        1 MGO      -0.578740
     52 C29x        -3.3770     4.0940     0.2110 C.3        1 MGO       0.090160
     53 C30x        -3.5350     3.1240     1.3920 C.3        1 MGO       0.104160
     54 O24x        -4.9640     2.7240     1.5010 O.3        1 MGO      -0.428540
     55 C31x        -3.0510     3.6200     2.7620 C.3        1 MGO       0.147460
     56 O25x        -3.1930     5.0430     2.8680 O.3        1 MGO      -0.595740
     57 C32x        -5.1240    -3.2780     0.2770 C.3        1 MGO       0.300960
     58 O26x        -3.6920    -3.3990    -0.0260 O.3        1 MGO      -0.451540
     59 C33x        -5.8140    -2.5720    -0.8880 C.3        1 MGO       0.103160
     60 O27x        -5.5640    -3.2910    -2.1070 O.3        1 MGO      -0.575740
     61 C34x        -5.2550    -1.1770    -1.0760 C.3        1 MGO       0.088160
     62 O28x        -6.0380    -0.5570    -2.1090 O.3        1 MGO      -0.578740
     63 C35x        -5.3930    -0.3780     0.2110 C.3        1 MGO       0.090160
     64 C36x        -4.7330    -1.1070     1.3910 C.3        1 MGO       0.104160
     65 O29x        -5.3110    -2.4730     1.5000 O.3        1 MGO      -0.428540
     66 C37x        -4.8200    -0.4200     2.7610 C.3        1 MGO       0.147460
     67 O30x        -6.0210     0.3560     2.8670 O.3        1 MGO      -0.595740
     68 C38x        -0.7180    -6.3400     0.2770 C.3        1 MGO       0.300960
     69 O31x         0.2690    -5.2960    -0.0260 O.3        1 MGO      -0.451540
     70 C39x        -1.6990    -6.4390    -0.8890 C.3        1 MGO       0.103160
     71 O32x        -0.9820    -6.6920    -2.1070 O.3        1 MGO      -0.575740
     72 C40x        -2.4420    -5.1330    -1.0760 C.3        1 MGO       0.088160
     73 O33x        -3.4150    -5.3580    -2.1100 O.3        1 MGO      -0.578740
     74 C41x        -3.1530    -4.7410     0.2100 C.3        1 MGO       0.090160
     75 C42x        -2.1720    -4.6810     1.3920 C.3        1 MGO       0.104160
     76 O34x        -1.4650    -5.9840     1.4990 O.3        1 MGO      -0.428540
     77 C43x        -2.7640    -4.3190     2.7620 C.3        1 MGO       0.147460
     78 O35x        -4.1200    -4.7750     2.8670 O.3        1 MGO      -0.595740
     79 C44x         4.1650     4.5700    10.1690 C.3        1 MGO       0.300960
     80 O36x         3.9650     3.1470    10.4710 O.3        1 MGO      -0.451540
     81 C45x         3.6310     5.3990    11.3330 C.3        1 MGO       0.103160
     82 O37x         4.2770     4.9960    12.5520 O.3        1 MGO      -0.575740
     83 C46x         2.1460     5.1650    11.5220 C.3        1 MGO       0.088160
     84 O38x         1.7160     6.0670    12.5550 O.3        1 MGO      -0.578740
     85 C47x         1.3980     5.4770    10.2360 C.3        1 MGO       0.090160
     86 C48x         1.9610     4.6710     9.0540 C.3        1 MGO       0.104160
     87 O39x         3.4210     4.9310     8.9460 O.3        1 MGO      -0.428540
     88 C49x         1.3090     4.9080     7.6840 C.3        1 MGO       0.147460
     89 O40x         0.8200     6.2520     7.5790 O.3        1 MGO      -0.595740
     90 C50x         6.1700    -0.4070    10.1690 C.3        1 MGO       0.300960
     91 O41x         4.9330    -1.1380    10.4720 O.3        1 MGO      -0.451540
     92 C51x         6.4850     0.5280    11.3340 C.3        1 MGO       0.103160
     93 O42x         6.5720    -0.2280    12.5530 O.3        1 MGO      -0.575740
     94 C52x         5.3760     1.5430    11.5210 C.3        1 MGO       0.088160
     95 O43x         5.8130     2.4410    12.5540 O.3        1 MGO      -0.578740
     96 C53x         5.1530     2.3220    10.2360 C.3        1 MGO       0.090160
     97 C54x         4.8760     1.3800     9.0540 C.3        1 MGO       0.104160
     98 O44x         5.9890     0.3990     8.9460 O.3        1 MGO      -0.428540
     99 C55x         4.6550     2.0360     7.6840 C.3        1 MGO       0.147460
    100 O45x         5.4010     3.2560     7.5780 O.3        1 MGO      -0.595740
    101 C56x         3.5300    -5.0780    10.1700 C.3        1 MGO       0.314504
    102 O46x         2.1860    -4.5650    10.4720 O.3        1 MGO      -0.440496
    103 C57x         4.4560    -4.7410    11.3350 C.3        1 MGO       0.141204
    104 O47x         3.9190    -5.2810    12.5530 O.3        1 MGO      -0.576196
    105 C58x         4.5580    -3.2410    11.5230 C.3        1 MGO       0.109204
    106 O48x         5.5330    -3.0230    12.5560 O.3        1 MGO      -0.596196
    107 C59x         5.0300    -2.5820    10.2360 C.3        1 MGO       0.088204
    108 C60x         4.1200    -2.9520     9.0550 C.3        1 MGO       0.128704
    109 O49x         4.0470    -4.4340     8.9470 O.3        1 MGO      -0.439996
    110 C61x         4.4960    -2.3700     7.6850 C.3        1 MGO       0.121004
    111 O50x         5.9150    -2.1930     7.5790 O.3        1 MGO      -0.410496
    112 C62x         6.3300    -2.2550     6.2290 C.3        1 MGO       0.210104
    113 C63x        -1.7690    -5.9250    10.1680 C.3        1 MGO       0.300960
    114 O51x        -2.2050    -4.5550    10.4710 O.3        1 MGO      -0.451540
    115 C64x        -0.9280    -6.4400    11.3330 C.3        1 MGO       0.103160
    116 O52x        -1.6850    -6.3570    12.5530 O.3        1 MGO      -0.575740
    117 C65x         0.3080    -5.5850    11.5220 C.3        1 MGO       0.088160
    118 O53x         1.0870    -6.2100    12.5550 O.3        1 MGO      -0.578740
    119 C66x         1.1180    -5.5410    10.2370 C.3        1 MGO       0.090160
    120 C67x         0.2620    -5.0610     9.0550 C.3        1 MGO       0.104160
    121 O54x        -0.9420    -5.9280     8.9460 O.3        1 MGO      -0.428540
    122 C68x         0.9510    -4.9920     7.6850 C.3        1 MGO       0.147460
    123 O55x         1.9740    -5.9890     7.5790 O.3        1 MGO      -0.595740
    124 C69x        -5.7350    -2.3110    10.1680 C.3        1 MGO       0.300960
    125 O56x        -4.9370    -1.1170    10.4710 O.3        1 MGO      -0.451540
    126 C70x        -5.6130    -3.2900    11.3330 C.3        1 MGO       0.103160
    127 O57x        -6.0210    -2.6470    12.5510 O.3        1 MGO      -0.575740
    128 C71x        -4.1740    -3.7240    11.5210 C.3        1 MGO       0.088160
    129 O58x        -4.1780    -4.7220    12.5540 O.3        1 MGO      -0.578740
    130 C72x        -3.6350    -4.3290    10.2350 C.3        1 MGO       0.090160
    131 C73x        -3.7930    -3.3590     9.0540 C.3        1 MGO       0.104160
    132 O59x        -5.2220    -2.9590     8.9450 O.3        1 MGO      -0.428540
    133 C74x        -3.3090    -3.8550     7.6840 C.3        1 MGO       0.147460
    134 O60x        -3.4510    -5.2780     7.5780 O.3        1 MGO      -0.595740
    135 C75x        -5.3820     3.0430    10.1690 C.3        1 MGO       0.300960
    136 O61x        -3.9500     3.1640    10.4720 O.3        1 MGO      -0.451540
    137 C76x        -6.0720     2.3370    11.3340 C.3        1 MGO       0.103160
    138 O62x        -5.8220     3.0560    12.5530 O.3        1 MGO      -0.575740
    139 C77x        -5.5130     0.9420    11.5220 C.3        1 MGO       0.088160
    140 O63x        -6.2960     0.3220    12.5550 O.3        1 MGO      -0.578740
    141 C78x        -5.6510     0.1430    10.2350 C.3        1 MGO       0.090160
    142 C79x        -4.9910     0.8720     9.0550 C.3        1 MGO       0.104160
    143 O64x        -5.5690     2.2380     8.9460 O.3        1 MGO      -0.428540
    144 C80x        -5.0780     0.1850     7.6850 C.3        1 MGO       0.147460
    145 O65x        -6.2790    -0.5910     7.5790 O.3        1 MGO      -0.595740
    146 C81x        -0.9760     6.1050    10.1690 C.3        1 MGO       0.300960
    147 O66x         0.0110     5.0610    10.4720 O.3        1 MGO      -0.451540
    148 C82x        -1.9570     6.2040    11.3350 C.3        1 MGO       0.103160
    149 O67x        -1.2400     6.4570    12.5530 O.3        1 MGO      -0.575740
    150 C83x        -2.7000     4.8980    11.5220 C.3        1 MGO       0.088160
    151 O68x        -3.6730     5.1230    12.5560 O.3        1 MGO      -0.578740
    152 C84x        -3.4110     4.5060    10.2360 C.3        1 MGO       0.090160
    153 C85x        -2.4300     4.4460     9.0540 C.3        1 MGO       0.104160
    154 O69x        -1.7230     5.7490     8.9470 O.3        1 MGO      -0.428540
    155 C86x        -3.0220     4.0840     7.6840 C.3        1 MGO       0.147460
    156 O70x        -4.3780     4.5400     7.5790 O.3        1 MGO      -0.595740
    157 S1x          6.4650    -3.9610     5.6580 S.3        1 MGO      -0.321096
    158 H1x          5.4950    -5.0010     0.4290 H          1 MGO       0.093760
    159 H2x          4.0840    -6.6920    -0.6600 H          1 MGO       0.087760
    160 H3x          5.3550    -4.7190    -1.8910 H          1 MGO       0.425060
    161 H4x          2.2040    -4.3520    -1.3430 H          1 MGO       0.108760
    162 H5x          1.5870    -7.1150    -1.6970 H          1 MGO       0.403060
    163 H6x          1.7480    -6.7790     0.4610 H          1 MGO       0.052760
    164 H7x          1.9840    -3.8590     1.1510 H          1 MGO       0.085760
    165 H8x          2.3130    -4.9680     3.5520 H          1 MGO       0.057260
    166 H9x          0.7200    -4.4500     2.8740 H          1 MGO       0.057260
    167 H10x         0.9890    -6.7320     3.8220 H          1 MGO       0.421060
    168 H11x         7.2500     0.8870     0.4290 H          1 MGO       0.092804
    169 H12x         7.6930    -1.2700    -0.6620 H          1 MGO       0.084804
    170 H13x         6.9400     0.9530    -1.8930 H          1 MGO       0.422604
    171 H14x         4.6890    -1.2810    -1.3410 H          1 MGO       0.075304
    172 H15x         6.4650    -3.4860    -1.6960 H          1 MGO       0.422104
    173 H16x         6.3020    -3.1510     0.4600 H          1 MGO       0.075304
    174 H17x         4.1690    -1.1460     1.1510 H          1 MGO       0.085304
    175 H18x         5.2410    -1.5780     3.5510 H          1 MGO       0.056804
    176 H19x         3.8430    -2.5010     2.8750 H          1 MGO       0.056804
    177 H20x         7.3960    -4.0390     3.7500 H          1 MGO       0.080804
    178 H21x         5.5620    -4.8840     4.1440 H          1 MGO       0.080804
    179 H22x         3.7420     5.9320     0.4280 H          1 MGO       0.093760
    180 H23x         5.7030     4.9320    -0.6630 H          1 MGO       0.087760
    181 H24x         3.4960     5.7310    -1.8920 H          1 MGO       0.425060
    182 H25x         3.8390     2.5770    -1.3440 H          1 MGO       0.108760
    183 H26x         6.6700     2.5920    -1.6980 H          1 MGO       0.403060
    184 H27x         6.3080     2.6740     0.4610 H          1 MGO       0.052760
    185 H28x         3.4090     2.2550     1.1500 H          1 MGO       0.085760
    186 H29x         4.4160     2.8230     3.5500 H          1 MGO       0.057260
    187 H30x         4.2670     1.1550     2.8730 H          1 MGO       0.057260
    188 H31x         6.4310     1.9260     3.8220 H          1 MGO       0.421060
    189 H32x        -2.3920     6.3310     0.4310 H          1 MGO       0.093760
    190 H33x        -0.3870     7.2430    -0.6600 H          1 MGO       0.087760
    191 H34x        -2.3880     6.0170    -1.8930 H          1 MGO       0.425060
    192 H35x         0.2910     4.3190    -1.3430 H          1 MGO       0.108760
    193 H36x         2.0470     6.5380    -1.6970 H          1 MGO       0.403060
    194 H37x         1.7570     6.3070     0.4580 H          1 MGO       0.052760
    195 H38x         0.2780     3.7800     1.1500 H          1 MGO       0.085760
    196 H39x         0.4610     4.9230     3.5500 H          1 MGO       0.057260
    197 H40x         1.6710     3.7650     2.8740 H          1 MGO       0.057260
    198 H41x         2.4180     5.9350     3.8220 H          1 MGO       0.421060
    199 H42x        -6.5270     1.7870     0.4310 H          1 MGO       0.093760
    200 H43x        -5.9900     3.9240    -0.6610 H          1 MGO       0.087760
    201 H44x        -6.2810     1.5960    -1.8900 H          1 MGO       0.425060
    202 H45x        -3.2800     2.6320    -1.3420 H          1 MGO       0.108760
    203 H46x        -3.9240     5.3880    -1.6970 H          1 MGO       0.403060
    204 H47x        -3.9220     5.0160     0.4620 H          1 MGO       0.052760
    205 H48x        -2.8690     2.2820     1.1500 H          1 MGO       0.085760
    206 H49x        -3.6470     3.1380     3.5510 H          1 MGO       0.057260
    207 H50x        -1.9870     3.3630     2.8740 H          1 MGO       0.057260
    208 H51x        -3.2190     5.3020     3.8230 H          1 MGO       0.421060
    209 H52x        -5.5530    -4.2790     0.4290 H          1 MGO       0.093760
    210 H53x        -6.8900    -2.5270    -0.6620 H          1 MGO       0.087760
    211 H54x        -5.2470    -4.2040    -1.8930 H          1 MGO       0.425060
    212 H55x        -4.1890    -1.2150    -1.3430 H          1 MGO       0.108760
    213 H56x        -6.7440     0.0020    -1.6970 H          1 MGO       0.403060
    214 H57x        -6.4540    -0.2290     0.4620 H          1 MGO       0.052760
    215 H58x        -3.6600    -1.1110     1.1490 H          1 MGO       0.085760
    216 H59x        -4.8150    -1.1870     3.5500 H          1 MGO       0.057260
    217 H60x        -3.9560     0.2510     2.8740 H          1 MGO       0.057260
    218 H61x        -6.2390     0.4970     3.8220 H          1 MGO       0.421060
    219 H62x        -0.2030    -7.3000     0.4300 H          1 MGO       0.093760
    220 H63x        -2.4040    -7.2530    -0.6640 H          1 MGO       0.087760
    221 H64x        -0.0710    -7.0140    -1.8930 H          1 MGO       0.425060
    222 H65x        -1.7470    -4.3230    -1.3420 H          1 MGO       0.108760
    223 H66x        -4.2920    -5.5610    -1.6990 H          1 MGO       0.403060
    224 H67x        -3.9310    -5.4770     0.4610 H          1 MGO       0.052760
    225 H68x        -1.4980    -3.8450     1.1520 H          1 MGO       0.085760
    226 H69x        -2.1620    -4.7920     3.5520 H          1 MGO       0.057260
    227 H70x        -2.7500    -3.2250     2.8740 H          1 MGO       0.057260
    228 H71x        -4.3670    -4.8580     3.8220 H          1 MGO       0.421060
    229 H72x         5.2370     4.7660    10.0170 H          1 MGO       0.093760
    230 H73x         3.8260     6.4570    11.1060 H          1 MGO       0.087760
    231 H74x         3.7540     5.3220    13.3260 H          1 MGO       0.425060
    232 H75x         1.9460     4.1170    11.7890 H          1 MGO       0.108760
    233 H76x         1.9060     5.6690    13.4410 H          1 MGO       0.403060
    234 H77x         1.4900     6.5440     9.9850 H          1 MGO       0.052760
    235 H78x         1.7260     3.6240     9.2950 H          1 MGO       0.085760
    236 H79x         2.0550     4.7330     6.8940 H          1 MGO       0.057260
    237 H80x         0.4620     4.2150     7.5720 H          1 MGO       0.057260
    238 H81x         0.6840     6.6250     8.4860 H          1 MGO       0.421060
    239 H82x         6.9920    -1.1220    10.0170 H          1 MGO       0.093760
    240 H83x         7.4350     1.0350    11.1080 H          1 MGO       0.087760
    241 H84x         6.5010     0.3850    13.3270 H          1 MGO       0.425060
    242 H85x         4.4310     1.0460    11.7870 H          1 MGO       0.108760
    243 H86x         5.6200     2.0440    13.4400 H          1 MGO       0.403060
    244 H87x         6.0440     2.9160     9.9860 H          1 MGO       0.052760
    245 H88x         3.9110     0.9110     9.2950 H          1 MGO       0.085760
    246 H89x         4.9830     1.3430     6.8950 H          1 MGO       0.057260
    247 H90x         3.5850     2.2660     7.5710 H          1 MGO       0.057260
    248 H91x         5.6090     3.5960     8.4840 H          1 MGO       0.421060
    249 H92x         3.4840    -6.1670    10.0180 H          1 MGO       0.092804
    250 H93x         5.4450    -5.1670    11.1090 H          1 MGO       0.084804
    251 H94x         4.3540    -4.8440    13.3280 H          1 MGO       0.422604
    252 H95x         3.5810    -2.8120    11.7900 H          1 MGO       0.075304
    253 H96x         5.1020    -3.1190    13.4420 H          1 MGO       0.422104
    254 H97x         6.0500    -2.9090     9.9850 H          1 MGO       0.075304
    255 H98x         3.1510    -2.4900     9.2960 H          1 MGO       0.085304
    256 H99x         4.1580    -3.0580     6.8960 H          1 MGO       0.056804
    257 H100         4.0090    -1.3900     7.5730 H          1 MGO       0.056804
    258 H101         7.3110    -1.7670     6.1340 H          1 MGO       0.080804
    259 H102         5.5770    -1.7430     5.6120 H          1 MGO       0.080804
    260 H103        -2.6500    -6.5660    10.0150 H          1 MGO       0.093760
    261 H104        -0.6450    -7.4780    11.1060 H          1 MGO       0.087760
    262 H105        -1.0720    -6.4240    13.3270 H          1 MGO       0.425060
    263 H106         0.0330    -4.5540    11.7890 H          1 MGO       0.108760
    264 H107         0.7430    -5.9340    13.4410 H          1 MGO       0.403060
    265 H108         1.4990    -6.5420     9.9880 H          1 MGO       0.052760
    266 H109         0.0200    -4.0150     9.2960 H          1 MGO       0.085760
    267 H110         0.2030    -5.1580     6.8960 H          1 MGO       0.057260
    268 H111         1.4130    -4.0000     7.5720 H          1 MGO       0.057260
    269 H112         2.2590    -6.2670     8.4850 H          1 MGO       0.421060
    270 H113        -6.7850    -2.0220    10.0150 H          1 MGO       0.093760
    271 H114        -6.2480    -4.1590    11.1070 H          1 MGO       0.087760
    272 H115        -5.6910    -3.1680    13.3260 H          1 MGO       0.425060
    273 H116        -3.5380    -2.8670    11.7880 H          1 MGO       0.108760
    274 H117        -4.1760    -4.2800    13.4400 H          1 MGO       0.403060
    275 H118        -4.1800    -5.2510     9.9840 H          1 MGO       0.052760
    276 H119        -3.1270    -2.5170     9.2960 H          1 MGO       0.085760
    277 H120        -3.9050    -3.3730     6.8950 H          1 MGO       0.057260
    278 H121        -2.2450    -3.5980     7.5720 H          1 MGO       0.057260
    279 H122        -3.4910    -5.6740     8.4840 H          1 MGO       0.421060
    280 H123        -5.8110     4.0440    10.0170 H          1 MGO       0.093760
    281 H124        -7.1480     2.2920    11.1080 H          1 MGO       0.087760
    282 H125        -6.0250     2.4730    13.3270 H          1 MGO       0.425060
    283 H126        -4.4470     0.9800    11.7890 H          1 MGO       0.108760
    284 H127        -5.9500     0.5960    13.4410 H          1 MGO       0.403060
    285 H128        -6.7120    -0.0060     9.9840 H          1 MGO       0.052760
    286 H129        -3.9180     0.8760     9.2970 H          1 MGO       0.085760
    287 H130        -5.0730     0.9520     6.8960 H          1 MGO       0.057260
    288 H131        -4.2140    -0.4860     7.5720 H          1 MGO       0.057260
    289 H132        -6.6130    -0.8070     8.4850 H          1 MGO       0.421060
    290 H133        -0.4610     7.0650    10.0160 H          1 MGO       0.093760
    291 H134        -2.6620     7.0180    11.1100 H          1 MGO       0.087760
    292 H135        -1.8220     6.2520    13.3270 H          1 MGO       0.425060
    293 H136        -2.0050     4.0880    11.7880 H          1 MGO       0.108760
    294 H137        -3.2420     5.0230    13.4420 H          1 MGO       0.403060
    295 H138        -4.1890     5.2420     9.9850 H          1 MGO       0.052760
    296 H139        -1.7560     3.6100     9.2940 H          1 MGO       0.085760
    297 H140        -2.4200     4.5570     6.8940 H          1 MGO       0.057260
    298 H141        -3.0080     2.9900     7.5720 H          1 MGO       0.057260
    299 H142        -4.7550     4.6670     8.4860 H          1 MGO       0.421060
@<TRIPOS>BOND
     1     1     2 1   
     2     1     3 1   
     3     1     9 1   
     4     1   158 1   
     5     2    18 1   
     6     3     4 1   
     7     3     5 1   
     8     3   159 1   
     9     4   160 1   
    10     5     6 1   
    11     5     7 1   
    12     5   161 1   
    13     6   162 1   
    14     7     8 1   
    15     7    69 1   
    16     7   163 1   
    17     8     9 1   
    18     8    10 1   
    19     8   164 1   
    20    10    11 1   
    21    10   165 1   
    22    10   166 1   
    23    11   167 1   
    24    12    13 1   
    25    12    14 1   
    26    12    20 1   
    27    12   168 1   
    28    13    30 1   
    29    14    15 1   
    30    14    16 1   
    31    14   169 1   
    32    15   170 1   
    33    16    17 1   
    34    16    18 1   
    35    16   171 1   
    36    17   172 1   
    37    18    19 1   
    38    18   173 1   
    39    19    20 1   
    40    19    21 1   
    41    19   174 1   
    42    21    22 1   
    43    21   175 1   
    44    21   176 1   
    45    22    23 1   
    46    23   157 1   
    47    23   177 1   
    48    23   178 1   
    49    24    25 1   
    50    24    26 1   
    51    24    32 1   
    52    24   179 1   
    53    25    41 1   
    54    26    27 1   
    55    26    28 1   
    56    26   180 1   
    57    27   181 1   
    58    28    29 1   
    59    28    30 1   
    60    28   182 1   
    61    29   183 1   
    62    30    31 1   
    63    30   184 1   
    64    31    32 1   
    65    31    33 1   
    66    31   185 1   
    67    33    34 1   
    68    33   186 1   
    69    33   187 1   
    70    34   188 1   
    71    35    36 1   
    72    35    37 1   
    73    35    43 1   
    74    35   189 1   
    75    36    52 1   
    76    37    38 1   
    77    37    39 1   
    78    37   190 1   
    79    38   191 1   
    80    39    40 1   
    81    39    41 1   
    82    39   192 1   
    83    40   193 1   
    84    41    42 1   
    85    41   194 1   
    86    42    43 1   
    87    42    44 1   
    88    42   195 1   
    89    44    45 1   
    90    44   196 1   
    91    44   197 1   
    92    45   198 1   
    93    46    47 1   
    94    46    48 1   
    95    46    54 1   
    96    46   199 1   
    97    47    63 1   
    98    48    49 1   
    99    48    50 1   
   100    48   200 1   
   101    49   201 1   
   102    50    51 1   
   103    50    52 1   
   104    50   202 1   
   105    51   203 1   
   106    52    53 1   
   107    52   204 1   
   108    53    54 1   
   109    53    55 1   
   110    53   205 1   
   111    55    56 1   
   112    55   206 1   
   113    55   207 1   
   114    56   208 1   
   115    57    58 1   
   116    57    59 1   
   117    57    65 1   
   118    57   209 1   
   119    58    74 1   
   120    59    60 1   
   121    59    61 1   
   122    59   210 1   
   123    60   211 1   
   124    61    62 1   
   125    61    63 1   
   126    61   212 1   
   127    62   213 1   
   128    63    64 1   
   129    63   214 1   
   130    64    65 1   
   131    64    66 1   
   132    64   215 1   
   133    66    67 1   
   134    66   216 1   
   135    66   217 1   
   136    67   218 1   
   137    68    69 1   
   138    68    70 1   
   139    68    76 1   
   140    68   219 1   
   141    70    71 1   
   142    70    72 1   
   143    70   220 1   
   144    71   221 1   
   145    72    73 1   
   146    72    74 1   
   147    72   222 1   
   148    73   223 1   
   149    74    75 1   
   150    74   224 1   
   151    75    76 1   
   152    75    77 1   
   153    75   225 1   
   154    77    78 1   
   155    77   226 1   
   156    77   227 1   
   157    78   228 1   
   158    79    80 1   
   159    79    81 1   
   160    79    87 1   
   161    79   229 1   
   162    80    96 1   
   163    81    82 1   
   164    81    83 1   
   165    81   230 1   
   166    82   231 1   
   167    83    84 1   
   168    83    85 1   
   169    83   232 1   
   170    84   233 1   
   171    85    86 1   
   172    85   147 1   
   173    85   234 1   
   174    86    87 1   
   175    86    88 1   
   176    86   235 1   
   177    88    89 1   
   178    88   236 1   
   179    88   237 1   
   180    89   238 1   
   181    90    91 1   
   182    90    92 1   
   183    90    98 1   
   184    90   239 1   
   185    91   107 1   
   186    92    93 1   
   187    92    94 1   
   188    92   240 1   
   189    93   241 1   
   190    94    95 1   
   191    94    96 1   
   192    94   242 1   
   193    95   243 1   
   194    96    97 1   
   195    96   244 1   
   196    97    98 1   
   197    97    99 1   
   198    97   245 1   
   199    99   100 1   
   200    99   246 1   
   201    99   247 1   
   202   100   248 1   
   203   101   102 1   
   204   101   103 1   
   205   101   109 1   
   206   101   249 1   
   207   102   119 1   
   208   103   104 1   
   209   103   105 1   
   210   103   250 1   
   211   104   251 1   
   212   105   106 1   
   213   105   107 1   
   214   105   252 1   
   215   106   253 1   
   216   107   108 1   
   217   107   254 1   
   218   108   109 1   
   219   108   110 1   
   220   108   255 1   
   221   110   111 1   
   222   110   256 1   
   223   110   257 1   
   224   111   112 1   
   225   112   157 1   
   226   112   258 1   
   227   112   259 1   
   228   113   114 1   
   229   113   115 1   
   230   113   121 1   
   231   113   260 1   
   232   114   130 1   
   233   115   116 1   
   234   115   117 1   
   235   115   261 1   
   236   116   262 1   
   237   117   118 1   
   238   117   119 1   
   239   117   263 1   
   240   118   264 1   
   241   119   120 1   
   242   119   265 1   
   243   120   121 1   
   244   120   122 1   
   245   120   266 1   
   246   122   123 1   
   247   122   267 1   
   248   122   268 1   
   249   123   269 1   
   250   124   125 1   
   251   124   126 1   
   252   124   132 1   
   253   124   270 1   
   254   125   141 1   
   255   126   127 1   
   256   126   128 1   
   257   126   271 1   
   258   127   272 1   
   259   128   129 1   
   260   128   130 1   
   261   128   273 1   
   262   129   274 1   
   263   130   131 1   
   264   130   275 1   
   265   131   132 1   
   266   131   133 1   
   267   131   276 1   
   268   133   134 1   
   269   133   277 1   
   270   133   278 1   
   271   134   279 1   
   272   135   136 1   
   273   135   137 1   
   274   135   143 1   
   275   135   280 1   
   276   136   152 1   
   277   137   138 1   
   278   137   139 1   
   279   137   281 1   
   280   138   282 1   
   281   139   140 1   
   282   139   141 1   
   283   139   283 1   
   284   140   284 1   
   285   141   142 1   
   286   141   285 1   
   287   142   143 1   
   288   142   144 1   
   289   142   286 1   
   290   144   145 1   
   291   144   287 1   
   292   144   288 1   
   293   145   289 1   
   294   146   147 1   
   295   146   148 1   
   296   146   154 1   
   297   146   290 1   
   298   148   149 1   
   299   148   150 1   
   300   148   291 1   
   301   149   292 1   
   302   150   151 1   
   303   150   152 1   
   304   150   293 1   
   305   151   294 1   
   306   152   153 1   
   307   152   295 1   
   308   153   154 1   
   309   153   155 1   
   310   153   296 1   
   311   155   156 1   
   312   155   297 1   
   313   155   298 1   
   314   156   299 1   
@<TRIPOS>SUBSTRUCTURE
     1 MGO         1 TEMP              0 ****  ****    0 ROOT
